<routes><vType accel="2.6" color=".8,.2,.2" decel="4.5" guiShape="passenger/sedan" id="passenger1" length="5.0" maxSpeed="70" minGap="1.5" sigma="0.5" vClass="passenger" /><vType accel="3.0" color=".8,.8,.8" decel="4.5" guiShape="passenger/hatchback" id="passenger2a" length="4.5" maxSpeed="50" minGap="1.5" sigma="0.5" vClass="passenger" /><vType accel="2.8" color=".2,.2,.8" decel="4.5" guiShape="passenger/hatchback" id="passenger2b" length="4.5" maxSpeed="50" minGap="1.0" sigma="0.5" vClass="passenger" /><vType accel="2.7" color=".3,.3,.3" decel="4.5" guiShape="passenger/wagon" id="passenger3" length="6.0" maxSpeed="70" minGap="1.5" sigma="0.5" vClass="passenger" /><vType accel="2.4" color=".9,.9,.9" decel="4.5" guiShape="passenger/van" id="passenger4" length="5.5" maxSpeed="30" minGap="1.5" sigma="0.5" vClass="passenger" /><vType accel="2.3" color=".8,.8,.0" decel="4.5" guiShape="delivery" id="passenger5" length="7.0" maxSpeed="30" minGap="2.5" sigma="0.5" vClass="passenger" /><vType accel="2.6" decel="4.5" guiShape="bus" id="bus" length="12.0" maxSpeed="30" minGap="3" sigma="0.5" vClass="bus" /></routes>